LAMMPS (29 Aug 2024 - Update 1)
# -----------------------------------------------------
# LAMMPS input script: NVT heating + holding at 1200 K
# -----------------------------------------------------

units          metal
atom_style     atomic
boundary       p p p

# Read atomic configuration
read_data      Al.lmp
Reading data file ...
  orthogonal box = (0 0 0) to (20.3 20.3 20.3)
  reading atoms ...
  500 atoms

# Define interatomic potential
pair_style     eam/alloy
pair_coeff     * * Mishin-Ni-Al-2009.eam.alloy Al

# Neighbor settings
neighbor       2.0 bin
neigh_modify   delay 10 check yes

# Initialize velocities at 300 K
velocity       all create 300.0 12345 mom yes dist gaussian

# Heating phase: Increase temperature from 300 K to 1200 K
fix            1 all nvt temp 300.0 1200.0 5.0
timestep       0.001
thermo         100
thermo_style   custom step temp pe ke etotal press vol

# Compute per-atom kinetic energy and temperature
compute        keAtom all ke/atom
variable       T_atom atom c_keAtom/(1.5*8.617333262e-5)

# Dump per-atom KE and temperature during heating
dump           2 all custom 100 dump.melt id type x y z c_keAtom v_T_atom
dump_modify    2 sort id

# Run heating phase for 80 ps (80000 steps)
run            80000

CITE-CITE-CITE-CITE-CITE-CITE-CITE-CITE-CITE-CITE-CITE-CITE-CITE

Your simulation uses code contributions which should be cited:

- Type Label Framework: https://doi.org/10.1021/acs.jpcb.3c08419

@Article{Gissinger24,
 author = {Jacob R. Gissinger, Ilia Nikiforov, Yaser Afshar, Brendon Waters, Moon-ki Choi, Daniel S. Karls, Alexander Stukowski, Wonpil Im, Hendrik Heinz, Axel Kohlmeyer, and Ellad B. Tadmor},
 title = {Type Label Framework for Bonded Force Fields in LAMMPS},
 journal = {J. Phys. Chem. B},
 year =    2024,
 volume =  128,
 number =  13,
 pages =   {3282â€“-3297}
}

CITE-CITE-CITE-CITE-CITE-CITE-CITE-CITE-CITE-CITE-CITE-CITE-CITE

Step          Temp          PotEng         KinEng         TotEng         Press          Volume
0   300           -1679.8882      19.350244     -1660.5379     -3314.4992      8365.427
Averages over the last 401 of 801 rows, steps 40000 to 80000:
Temp PotEng KinEng TotEng Press Volume
956.693 -1618.64 61.7075 -1556.93 29810.5 8365.43
Loop time of 80.1474 on 1 procs for 80000 steps with 500 atoms

# Remove the dump before resetting timestep
undump         2

# Reset timestep when entering relaxation phase
reset_timestep 0

# Remove the heating fix
unfix          1

# Holding phase: Maintain temperature at 1200 K for 5 ps
fix            2 all nvt temp 1200.0 1200.0 5.0

# Additional dump file for the holding phase at 1200 K
dump           3 all custom 100 dump.relax id type x y z c_keAtom v_T_atom
dump_modify    3 sort id

# Run holding phase for 5 ps (5000 steps)
run            5000
Step          Temp          PotEng         KinEng         TotEng         Press          Volume
0   1218.2009     -1604.7236      78.574945     -1526.1486      38930.372      8365.427
Averages over the last 26 of 51 rows, steps 2500 to 5000:
Temp PotEng KinEng TotEng Press Volume
1179.82 -1601.77 76.0995 -1525.67 40439.3 8365.43
Loop time of 5.97681 on 1 procs for 5000 steps with 500 atoms
